
#######################################################################
#
#                 Cambridge Crystallographic Data Centre
#                                CCDC 
#
#######################################################################
#
# If this CIF has been generated from an entry in the Cambridge 
# Structural Database, then it will include bibliographic, chemical, 
# crystal, experimental, refinement or atomic coordinate data resulting 
# from the CCDC's data processing and validation procedures.
#
#######################################################################

data_cmpd_1
_symmetry_cell_setting           triclinic
_symmetry_space_group_name_H-M   'P 1'
_symmetry_Int_Tables_number      1
_space_group_name_Hall           'P 1'
loop_
_symmetry_equiv_pos_site_id
_symmetry_equiv_pos_as_xyz
1 x,y,z
_cell_length_a                   25.669
_cell_length_b                   25.669
_cell_length_c                   25.669
_cell_angle_alpha                90
_cell_angle_beta                 90
_cell_angle_gamma                90
_cell_volume                     16913.2
loop_
_atom_site_label
_atom_site_type_symbol
_atom_site_fract_x
_atom_site_fract_y
_atom_site_fract_z
Zn(1) Zn 0.293502 0.206498 0.206498
O(1) O 0.250002 0.250002 0.250002
O(2) O 0.281799 0.218201 0.133901
C(1) C 0.250002 0.250002 0.110499
C(2) C 0.2831 0.2169 0.0263002
C(3) C 0.250002 0.250002 0.0538003
H(2A) H 0.305898 0.194102 0.0451985
O(2) O 0.218201 0.281799 0.133901
C(2) C 0.2169 0.2831 0.0263002
H(2A) H 0.194102 0.305898 0.0451985
Zn(1) Zn 0.206498 0.206498 0.293502
O(2) O 0.218201 0.218201 0.366099
C(1) C 0.250002 0.250002 0.389501
C(2) C 0.2169 0.2169 0.4737
C(3) C 0.250002 0.250002 0.4462
H(2A) H 0.194102 0.194102 0.454802
O(2) O 0.281799 0.281799 0.366099
C(2) C 0.2831 0.2831 0.4737
H(2A) H 0.305898 0.305898 0.454802
O(2) O 0.281799 0.281799 0.633901
C(1) C 0.250002 0.250002 0.610499
C(2) C 0.2831 0.2831 0.5263
C(3) C 0.250002 0.250002 0.5538
H(2A) H 0.305898 0.305898 0.545198
O(2) O 0.218201 0.218201 0.633901
C(2) C 0.2169 0.2169 0.5263
H(2A) H 0.194102 0.194102 0.545198
Zn(1) Zn 0.206498 0.293502 0.206498
Zn(1) Zn 0.293502 0.293502 0.293502
O(2) O 0.133901 0.281799 0.218201
C(1) C 0.110499 0.250002 0.250002
C(2) C 0.0263002 0.2831 0.2169
C(3) C 0.0538003 0.250002 0.250002
H(2A) H 0.0451985 0.305898 0.194102
O(2) O 0.133901 0.218201 0.281799
C(2) C 0.0263002 0.2169 0.2831
H(2A) H 0.0451985 0.194102 0.305898
Zn(1) Zn 0.206498 0.206498 0.706498
Zn(1) Zn 0.293502 0.293502 0.706498
O(2) O 0.218201 0.133901 0.281799
O(2) O 0.218201 0.366099 0.218201
O(2) O 0.366099 0.281799 0.281799
O(2) O 0.281799 0.133901 0.218201
O(2) O 0.366099 0.218201 0.218201
O(2) O 0.281799 0.366099 0.281799
O(2) O 0.218201 0.281799 0.866099
C(1) C 0.250002 0.250002 0.889501
C(2) C 0.2169 0.2831 0.9737
C(3) C 0.250002 0.250002 0.9462
H(2A) H 0.194102 0.305898 0.954802
O(2) O 0.281799 0.218201 0.866099
C(2) C 0.2831 0.2169 0.9737
H(2A) H 0.305898 0.194102 0.954802
Zn(1) Zn 0.206498 0.293502 0.793502
Zn(1) Zn 0.293502 0.206498 0.793502
O(2) O 0.866099 0.218201 0.281799
C(1) C 0.889501 0.250002 0.250002
C(2) C 0.9737 0.2169 0.2831
C(3) C 0.9462 0.250002 0.250002
H(2A) H 0.954802 0.194102 0.305898
O(2) O 0.866099 0.281799 0.218201
C(2) C 0.9737 0.2831 0.2169
H(2A) H 0.954802 0.305898 0.194102
Zn(1) Zn 0.793502 0.293502 0.206498
Zn(1) Zn 0.793502 0.206498 0.293502
O(2) O 0.281799 0.781799 0.133901
C(1) C 0.250002 0.750002 0.110499
C(2) C 0.2831 0.7831 0.0263002
C(3) C 0.250002 0.750002 0.0538003
H(2A) H 0.305898 0.805898 0.0451985
O(2) O 0.218201 0.718201 0.133901
C(2) C 0.2169 0.7169 0.0263002
H(2A) H 0.194102 0.694102 0.0451985
Zn(1) Zn 0.206498 0.706498 0.206498
Zn(1) Zn 0.293502 0.793502 0.206498
Zn(1) Zn 0.293502 0.706498 0.706498
O(1) O 0.250002 0.750002 0.750002
O(2) O 0.281799 0.718201 0.633901
C(1) C 0.250002 0.750002 0.610499
C(2) C 0.2831 0.7169 0.5263
C(3) C 0.250002 0.750002 0.5538
H(2A) H 0.305898 0.694102 0.545198
O(2) O 0.218201 0.781799 0.633901
C(2) C 0.2169 0.7831 0.5263
H(2A) H 0.194102 0.805898 0.545198
O(2) O 0.218201 0.781799 0.366099
C(1) C 0.250002 0.750002 0.389501
C(2) C 0.2169 0.7831 0.4737
C(3) C 0.250002 0.750002 0.4462
H(2A) H 0.194102 0.805898 0.454802
O(2) O 0.281799 0.718201 0.366099
C(2) C 0.2831 0.7169 0.4737
H(2A) H 0.305898 0.694102 0.454802
Zn(1) Zn 0.206498 0.706498 0.793502
O(2) O 0.218201 0.718201 0.866099
C(1) C 0.250002 0.750002 0.889501
C(2) C 0.2169 0.7169 0.9737
C(3) C 0.250002 0.750002 0.9462
H(2A) H 0.194102 0.694102 0.954802
O(2) O 0.281799 0.781799 0.866099
C(2) C 0.2831 0.7831 0.9737
H(2A) H 0.305898 0.805898 0.954802
Zn(1) Zn 0.206498 0.793502 0.706498
Zn(1) Zn 0.293502 0.793502 0.793502
O(2) O 0.133901 0.781799 0.718201
C(1) C 0.110499 0.750002 0.750002
C(2) C 0.0263002 0.7831 0.7169
C(3) C 0.0538003 0.750002 0.750002
H(2A) H 0.0451985 0.805898 0.694102
O(2) O 0.133901 0.718201 0.781799
C(2) C 0.0263002 0.7169 0.7831
H(2A) H 0.0451985 0.694102 0.805898
Zn(1) Zn 0.206498 0.793502 0.293502
Zn(1) Zn 0.293502 0.706498 0.293502
O(2) O 0.218201 0.633901 0.781799
O(2) O 0.218201 0.866099 0.718201
O(2) O 0.366099 0.781799 0.781799
O(2) O 0.281799 0.633901 0.718201
O(2) O 0.366099 0.718201 0.718201
O(2) O 0.281799 0.866099 0.781799
O(2) O 0.866099 0.718201 0.781799
C(1) C 0.889501 0.750002 0.750002
C(2) C 0.9737 0.7169 0.7831
C(3) C 0.9462 0.750002 0.750002
H(2A) H 0.954802 0.694102 0.805898
O(2) O 0.866099 0.781799 0.718201
C(2) C 0.9737 0.7831 0.7169
H(2A) H 0.954802 0.805898 0.694102
Zn(1) Zn 0.793502 0.793502 0.706498
Zn(1) Zn 0.793502 0.706498 0.793502
O(2) O 0.781799 0.281799 0.133901
C(1) C 0.750002 0.250002 0.110499
C(2) C 0.7831 0.2831 0.0263002
C(3) C 0.750002 0.250002 0.0538003
H(2A) H 0.805898 0.305898 0.0451985
O(2) O 0.718201 0.218201 0.133901
C(2) C 0.7169 0.2169 0.0263002
H(2A) H 0.694102 0.194102 0.0451985
Zn(1) Zn 0.706498 0.206498 0.206498
Zn(1) Zn 0.793502 0.206498 0.706498
O(1) O 0.750002 0.250002 0.750002
O(2) O 0.781799 0.218201 0.633901
C(1) C 0.750002 0.250002 0.610499
C(2) C 0.7831 0.2169 0.5263
C(3) C 0.750002 0.250002 0.5538
H(2A) H 0.805898 0.194102 0.545198
O(2) O 0.718201 0.281799 0.633901
C(2) C 0.7169 0.2831 0.5263
H(2A) H 0.694102 0.305898 0.545198
O(2) O 0.718201 0.281799 0.366099
C(1) C 0.750002 0.250002 0.389501
C(2) C 0.7169 0.2831 0.4737
C(3) C 0.750002 0.250002 0.4462
H(2A) H 0.694102 0.305898 0.454802
O(2) O 0.781799 0.218201 0.366099
C(2) C 0.7831 0.2169 0.4737
H(2A) H 0.805898 0.194102 0.454802
Zn(1) Zn 0.706498 0.206498 0.793502
O(2) O 0.718201 0.218201 0.866099
C(1) C 0.750002 0.250002 0.889501
C(2) C 0.7169 0.2169 0.9737
C(3) C 0.750002 0.250002 0.9462
H(2A) H 0.694102 0.194102 0.954802
O(2) O 0.781799 0.281799 0.866099
C(2) C 0.7831 0.2831 0.9737
H(2A) H 0.805898 0.305898 0.954802
Zn(1) Zn 0.706498 0.293502 0.706498
Zn(1) Zn 0.793502 0.293502 0.793502
O(2) O 0.633901 0.281799 0.718201
C(1) C 0.610499 0.250002 0.750002
C(2) C 0.5263 0.2831 0.7169
C(3) C 0.5538 0.250002 0.750002
H(2A) H 0.545198 0.305898 0.694102
O(2) O 0.633901 0.218201 0.781799
C(2) C 0.5263 0.2169 0.7831
H(2A) H 0.545198 0.194102 0.805898
O(2) O 0.366099 0.218201 0.781799
C(1) C 0.389501 0.250002 0.750002
C(2) C 0.4737 0.2169 0.7831
C(3) C 0.4462 0.250002 0.750002
H(2A) H 0.454802 0.194102 0.805898
O(2) O 0.366099 0.281799 0.718201
C(2) C 0.4737 0.2831 0.7169
H(2A) H 0.454802 0.305898 0.694102
Zn(1) Zn 0.706498 0.293502 0.293502
O(2) O 0.718201 0.133901 0.781799
O(2) O 0.718201 0.366099 0.718201
O(2) O 0.866099 0.281799 0.781799
O(2) O 0.781799 0.133901 0.718201
O(2) O 0.866099 0.218201 0.718201
O(2) O 0.781799 0.366099 0.781799
Zn(1) Zn 0.793502 0.706498 0.206498
O(1) O 0.750002 0.750002 0.250002
O(2) O 0.781799 0.718201 0.133901
C(1) C 0.750002 0.750002 0.110499
C(2) C 0.7831 0.7169 0.0263002
C(3) C 0.750002 0.750002 0.0538003
H(2A) H 0.805898 0.694102 0.0451985
O(2) O 0.718201 0.781799 0.133901
C(2) C 0.7169 0.7831 0.0263002
H(2A) H 0.694102 0.805898 0.0451985
Zn(1) Zn 0.706498 0.706498 0.293502
O(2) O 0.718201 0.718201 0.366099
C(1) C 0.750002 0.750002 0.389501
C(2) C 0.7169 0.7169 0.4737
C(3) C 0.750002 0.750002 0.4462
H(2A) H 0.694102 0.694102 0.454802
O(2) O 0.781799 0.781799 0.366099
C(2) C 0.7831 0.7831 0.4737
H(2A) H 0.805898 0.805898 0.454802
O(2) O 0.781799 0.781799 0.633901
C(1) C 0.750002 0.750002 0.610499
C(2) C 0.7831 0.7831 0.5263
C(3) C 0.750002 0.750002 0.5538
H(2A) H 0.805898 0.805898 0.545198
O(2) O 0.718201 0.718201 0.633901
C(2) C 0.7169 0.7169 0.5263
H(2A) H 0.694102 0.694102 0.545198
Zn(1) Zn 0.706498 0.793502 0.206498
Zn(1) Zn 0.793502 0.793502 0.293502
O(2) O 0.633901 0.781799 0.218201
C(1) C 0.610499 0.750002 0.250002
C(2) C 0.5263 0.7831 0.2169
C(3) C 0.5538 0.750002 0.250002
H(2A) H 0.545198 0.805898 0.194102
O(2) O 0.633901 0.718201 0.281799
C(2) C 0.5263 0.7169 0.2831
H(2A) H 0.545198 0.694102 0.305898
O(2) O 0.366099 0.718201 0.281799
C(1) C 0.389501 0.750002 0.250002
C(2) C 0.4737 0.7169 0.2831
C(3) C 0.4462 0.750002 0.250002
H(2A) H 0.454802 0.694102 0.305898
O(2) O 0.366099 0.781799 0.218201
C(2) C 0.4737 0.7831 0.2169
H(2A) H 0.454802 0.805898 0.194102
Zn(1) Zn 0.706498 0.706498 0.706498
O(2) O 0.718201 0.633901 0.281799
O(2) O 0.718201 0.866099 0.218201
O(2) O 0.866099 0.781799 0.281799
O(2) O 0.781799 0.633901 0.218201
O(2) O 0.866099 0.718201 0.218201
O(2) O 0.781799 0.866099 0.281799
O(2) O 0.718201 0.781799 0.866099
C(1) C 0.750002 0.750002 0.889501
C(2) C 0.7169 0.7831 0.9737
C(3) C 0.750002 0.750002 0.9462
H(2A) H 0.694102 0.805898 0.954802
O(2) O 0.781799 0.718201 0.866099
C(2) C 0.7831 0.7169 0.9737
H(2A) H 0.805898 0.694102 0.954802
Zn(1) Zn 0.706498 0.793502 0.793502
O(2) O 0.133901 0.218201 0.718201
C(1) C 0.110499 0.250002 0.750002
C(2) C 0.0263002 0.2169 0.7169
C(3) C 0.0538003 0.250002 0.750002
H(2A) H 0.0451985 0.194102 0.694102
O(2) O 0.133901 0.281799 0.781799
C(2) C 0.0263002 0.2831 0.7831
H(2A) H 0.0451985 0.305898 0.805898
C(1) C 0.889501 0.250002 0.750002
C(2) C 0.9737 0.2831 0.7831
C(3) C 0.9462 0.250002 0.750002
H(2A) H 0.954802 0.305898 0.805898
C(2) C 0.9737 0.2169 0.7169
H(2A) H 0.954802 0.194102 0.694102
O(2) O 0.133901 0.781799 0.281799
C(1) C 0.110499 0.750002 0.250002
C(2) C 0.0263002 0.7831 0.2831
C(3) C 0.0538003 0.750002 0.250002
H(2A) H 0.0451985 0.805898 0.305898
O(2) O 0.133901 0.718201 0.218201
C(2) C 0.0263002 0.7169 0.2169
H(2A) H 0.0451985 0.694102 0.194102
C(1) C 0.889501 0.750002 0.250002
C(2) C 0.9737 0.7169 0.2169
C(3) C 0.9462 0.750002 0.250002
H(2A) H 0.954802 0.694102 0.194102
C(2) C 0.9737 0.7831 0.2831
H(2A) H 0.954802 0.805898 0.305898
C(1) C 0.389501 0.250002 0.250002
C(2) C 0.4737 0.2831 0.2831
C(3) C 0.4462 0.250002 0.250002
H(2A) H 0.454802 0.305898 0.305898
C(2) C 0.4737 0.2169 0.2169
H(2A) H 0.454802 0.194102 0.194102
O(2) O 0.633901 0.218201 0.218201
C(1) C 0.610499 0.250002 0.250002
C(2) C 0.5263 0.2169 0.2169
C(3) C 0.5538 0.250002 0.250002
H(2A) H 0.545198 0.194102 0.194102
O(2) O 0.633901 0.281799 0.281799
C(2) C 0.5263 0.2831 0.2831
H(2A) H 0.545198 0.305898 0.305898
C(1) C 0.389501 0.750002 0.750002
C(2) C 0.4737 0.7169 0.7169
C(3) C 0.4462 0.750002 0.750002
H(2A) H 0.454802 0.694102 0.694102
C(2) C 0.4737 0.7831 0.7831
H(2A) H 0.454802 0.805898 0.805898
O(2) O 0.633901 0.781799 0.781799
C(1) C 0.610499 0.750002 0.750002
C(2) C 0.5263 0.7831 0.7831
C(3) C 0.5538 0.750002 0.750002
H(2A) H 0.545198 0.805898 0.805898
O(2) O 0.633901 0.718201 0.718201
C(2) C 0.5263 0.7169 0.7169
H(2A) H 0.545198 0.694102 0.694102
O(1) O 0.750002 0.250002 0.250002
O(2) O 0.718201 0.133901 0.218201
C(1) C 0.750002 0.110499 0.250002
C(2) C 0.7169 0.0263002 0.2169
C(3) C 0.750002 0.0538003 0.250002
H(2A) H 0.694102 0.0451985 0.194102
O(2) O 0.781799 0.133901 0.281799
C(2) C 0.7831 0.0263002 0.2831
H(2A) H 0.805898 0.0451985 0.305898
O(2) O 0.718201 0.366099 0.281799
O(2) O 0.781799 0.366099 0.218201
C(1) C 0.750002 0.889501 0.250002
C(2) C 0.7831 0.9737 0.2831
C(3) C 0.750002 0.9462 0.250002
H(2A) H 0.805898 0.954802 0.305898
C(2) C 0.7169 0.9737 0.2169
H(2A) H 0.694102 0.954802 0.194102
C(1) C 0.250002 0.110499 0.250002
C(2) C 0.2169 0.0263002 0.2831
C(3) C 0.250002 0.0538003 0.250002
H(2A) H 0.194102 0.0451985 0.305898
C(2) C 0.2831 0.0263002 0.2169
H(2A) H 0.305898 0.0451985 0.194102
O(1) O 0.250002 0.750002 0.250002
O(2) O 0.281799 0.866099 0.218201
C(1) C 0.250002 0.889501 0.250002
C(2) C 0.2831 0.9737 0.2169
C(3) C 0.250002 0.9462 0.250002
H(2A) H 0.305898 0.954802 0.194102
O(2) O 0.218201 0.866099 0.281799
C(2) C 0.2169 0.9737 0.2831
H(2A) H 0.194102 0.954802 0.305898
O(2) O 0.281799 0.633901 0.281799
O(2) O 0.218201 0.633901 0.218201
C(1) C 0.250002 0.610499 0.250002
C(2) C 0.2169 0.5263 0.2169
C(3) C 0.250002 0.5538 0.250002
H(2A) H 0.194102 0.545198 0.194102
C(2) C 0.2831 0.5263 0.2831
H(2A) H 0.305898 0.545198 0.305898
C(1) C 0.250002 0.389501 0.250002
C(2) C 0.2831 0.4737 0.2831
C(3) C 0.250002 0.4462 0.250002
H(2A) H 0.305898 0.454802 0.305898
C(2) C 0.2169 0.4737 0.2169
H(2A) H 0.194102 0.454802 0.194102
C(1) C 0.750002 0.389501 0.250002
C(2) C 0.7831 0.4737 0.2169
C(3) C 0.750002 0.4462 0.250002
H(2A) H 0.805898 0.454802 0.194102
C(2) C 0.7169 0.4737 0.2831
H(2A) H 0.694102 0.454802 0.305898
C(1) C 0.750002 0.610499 0.250002
C(2) C 0.7169 0.5263 0.2831
C(3) C 0.750002 0.5538 0.250002
H(2A) H 0.694102 0.545198 0.305898
C(2) C 0.7831 0.5263 0.2169
H(2A) H 0.805898 0.545198 0.194102
O(1) O 0.750002 0.750002 0.750002
O(2) O 0.718201 0.633901 0.718201
C(1) C 0.750002 0.610499 0.750002
C(2) C 0.7169 0.5263 0.7169
C(3) C 0.750002 0.5538 0.750002
H(2A) H 0.694102 0.545198 0.694102
O(2) O 0.781799 0.633901 0.781799
C(2) C 0.7831 0.5263 0.7831
H(2A) H 0.805898 0.545198 0.805898
C(1) C 0.750002 0.389501 0.750002
C(2) C 0.7831 0.4737 0.7831
C(3) C 0.750002 0.4462 0.750002
H(2A) H 0.805898 0.454802 0.805898
C(2) C 0.7169 0.4737 0.7169
H(2A) H 0.694102 0.454802 0.694102
O(2) O 0.718201 0.866099 0.781799
O(2) O 0.781799 0.866099 0.718201
C(1) C 0.750002 0.110499 0.750002
C(2) C 0.7169 0.0263002 0.7831
C(3) C 0.750002 0.0538003 0.750002
H(2A) H 0.694102 0.0451985 0.805898
C(2) C 0.7831 0.0263002 0.7169
H(2A) H 0.805898 0.0451985 0.694102
C(1) C 0.750002 0.889501 0.750002
C(2) C 0.7831 0.9737 0.7169
C(3) C 0.750002 0.9462 0.750002
H(2A) H 0.805898 0.954802 0.694102
C(2) C 0.7169 0.9737 0.7831
H(2A) H 0.694102 0.954802 0.805898
O(1) O 0.250002 0.250002 0.750002
O(2) O 0.281799 0.366099 0.718201
C(1) C 0.250002 0.389501 0.750002
C(2) C 0.2831 0.4737 0.7169
C(3) C 0.250002 0.4462 0.750002
H(2A) H 0.305898 0.454802 0.694102
O(2) O 0.218201 0.366099 0.781799
C(2) C 0.2169 0.4737 0.7831
H(2A) H 0.194102 0.454802 0.805898
C(1) C 0.250002 0.610499 0.750002
C(2) C 0.2169 0.5263 0.7831
C(3) C 0.250002 0.5538 0.750002
H(2A) H 0.194102 0.545198 0.805898
C(2) C 0.2831 0.5263 0.7169
H(2A) H 0.305898 0.545198 0.694102
O(2) O 0.281799 0.133901 0.781799
O(2) O 0.218201 0.133901 0.718201
C(1) C 0.250002 0.110499 0.750002
C(2) C 0.2169 0.0263002 0.7169
C(3) C 0.250002 0.0538003 0.750002
H(2A) H 0.194102 0.0451985 0.694102
C(2) C 0.2831 0.0263002 0.7831
H(2A) H 0.305898 0.0451985 0.805898
C(1) C 0.250002 0.889501 0.750002
C(2) C 0.2831 0.9737 0.7831
C(3) C 0.250002 0.9462 0.750002
H(2A) H 0.305898 0.954802 0.805898
C(2) C 0.2169 0.9737 0.7169
H(2A) H 0.194102 0.954802 0.694102

#END
